DATABASE D:\Geokemi\Modelling\PhreeqC\Databases\wateq4f_3.7.3_no-redox_S_CH4_N2_H2 .dat
#DATABASE D:\Geokemi\Modelling\PhreeqC\Databases\wateq4f_3.7.3_no-redox_S_CH4_N2_H2 .dat

TITLE .
!------------------------------------------------------------------------
 The model in Bajracharya et al. (2022) Geomicrobiology Journal 39, 1–16.
 https://doi.org/10.1080/01490451.2021.1998256
 Tables, eqns, etc, refer to this publication.
   CFB = cellulose fermenting bacteria.
   frm = fermentation.
   SRB = sulfate reducing bacteria.
   [hom] = macromolecular Hydrolyzable Organic Matter, represented by cellulose.
           Not really needed in the kinetic model as its concentration is constant.
   [he] = extracellular Hydrolytic Enzymes.
   'a' and 'i' dessignate active and inactive (dormant) biomass, respectively.
 - Fe(2): FeS(s) is initially saturated and in the KINETIC stoichiomety sulfide
 is produced simultaneously with Fe(2) so that FeS(s) saturation is maintained.
 for charge compensation, two chloride ions are added in the kinetic equation.
 - Sulfate is kept constant at the initial value by taking it out from
 the KINETIC stoichiomety of sulfate reduction, two Na+ are added for
 charge balance.
!------------------------------------------------------------------------

SOLUTION_MASTER_SPECIES
#element   species   alk  gfw_or_formula
#                                        element_gfw
X_srb_a    X_srb_a   0.0   CH1.8O0.5N0.2    24.6      # Active SRB biomass = C5H9O2.5N
X_srb_i    X_srb_i   0.0   CH1.8O0.5N0.2    24.6      # Inactive SRB biomass = C5H9O2.5N
X_cfb_a    X_cfb_a   0.0   CH1.8O0.5N0.2    24.6      # Active CFB biomass = C5H9O2.5N
X_cfb_i    X_cfb_i   0.0   CH1.8O0.5N0.2    24.6      # Inactive CFB biomass = C5H9O2.5N
[hom]      [hom]     0.0   C6H12O6          180.15    # Hydrolyzable Organic Matter (cellulose)
[he]       [he]      0.0   CH1.8O0.5N0.2    24.6      # extracellular Hydrolytic Enzymes, same composition as biomass
Ace        Ace-      0.0   CH3COO           59.044    # Acetate CH3COO-
Glucose    Glucose   0.0   C6H12O6          180.15    # Glucose C6H12O6

SOLUTION_SPECIES
    2 H+ + CO3-2 + H2O - 2O2 = CH4
      log_k  -9999  # remove the formation of CH4 in very reducing conditions
    2 H+ + 2 e- = H2
      log_k       -3.08             
      delta_h     -4.200  #kJ/mol # 82WAG/EVA
    [he] = [he]           # extracellular Hydrolytic Enzymes
      log_k    0
      -gamma 1 0
    [hom] = [hom]         # Hydrolyzable Organic Matter
      log_k    0
      -gamma 1 0
    X_srb_a = X_srb_a     # Active SRB Biomass
      log_k    0
      -gamma 1 0
    X_srb_i = X_srb_i     # Inactive (dormant) SRB Biomass
      log_k    0
      -gamma 1 0
    X_cfb_a = X_cfb_a     # Active CFB (fermenters) Biomass
      log_k    0
      -gamma 1 0
    X_cfb_i = X_cfb_i     # Inactive CFB Biomass
      log_k    0
      -gamma 1 0
    Glucose = Glucose     # Glucose
      log_k 0
    Ace- = Ace-           # Acetate
      log_k 0
    H+ + Ace- = HAce
      log_k   4.757
      delta_h +0.41 kJ
    Ca+2 + Ace- = CaAce+
      log_k    1.18
      delta_h +1. kcal
    Fe+2 + Ace- = FeAce+
      log_k    1.
#    H2O + 0.01e- = H2O-0.01
#      log_k   -9.0 

PHASES
HOM(s) # used to keep a constant conc. of [hom] at 1e-3 mol/kg_w
      [hom] = [hom]
      log_k    -3

KNOBS
    -diagonal_scale        true

USER_PRINT
-start
  5 REM # Note: this will be "run" when the first "solution" is calculated
 10 PRINT ".******************************************************"
 15 PRINT " Saving values of Delta-Gr at 10°C"
 20 REM # Save values of Delta-G°r at 10°C
 25 REM # note that this is run only if a print-out is made...
 26 REM #
 30 REM # Eqn.(4) is used here: ?G° = ?G - R T ln(10) logQ
 35 REM # where ?G are the data for initial conditions in Table 2
 40 REM # and logQ is the value calculated by PhreeqC and printed
 45 REM # through User_Punch
 50 REM
100 REM # SO4 reduction with H2(aq). Delta-G°r in kJ/(mol H2)
120 REM #   H2(aq) + 0.25 H+ + 0.25 SO4-2  --> 0.25 HS- + H2O  eqn.(20)
140 REM # DG0_25 = -65.19 # kJ/(mol H2), NBS data at 10°C
145 DG0_t = -66.10 # kJ/(mol H2) from ?G° = ?G - R T ln(10) logQ
150 PUT(DG0_t, 1)
210 REM # SO4 reduction with acetate. Delta-G°r in kJ/(C-mol Acetate)
220 REM #   CH3COO- + SO4-2  -->  2 HCO3- + HS-  eqn.(19)
230 REM #   0.5 CH3COO- + 0.5 SO4-2 --> HCO3- + 0.5 HS-
240 REM # DG0_25 = -24.067 # kJ/(C-mol acetate) based on DG°f(acetate) = -369.31 (NBS 1982)
245 DG0_t = -23.33 # kJ/(C-mol acetate) from ?G° = ?G - R T ln(10) logQ
250 PUT(DG0_t, 2)
310 REM # Fermentation of glucose to acetate and H2(aq). Delta-G°r in kJ/(C-mol Glucose)
320 REM #   C6H12O6 + 4H2O = 2 Ace- + 2 HCO3- + 4H+ + 4H2(aq)  eqn.(18)
330 REM #   0.1667 C6H12O6 + 0.6667 H2O = 0.3333 CH3COO- + 0.3333 HCO3- + 0.6667 H+ + 0.6667 H2(aq)
340 REM # DG0_25 = +3.74 # kJ/(C-mol glucose) based on  DG°f(glucose) = -915.9  (1989Goldberg-Tewari)
341 REM #                                               DG°f(acetate) = -369.31 (NBS 1982)
345 DG0_t = -4.06 # kJ/(C-mol glucose) from ?G° = ?G - R T ln(10) logQ
350 PUT(DG0_t, 3)
500 PRINT ".******************************************************"
510 PRINT " logA(Fe+2)  = ",TRIM(STR_F$(LA("Fe+2"),10,5))
520 PRINT " logA(SO4-2) = ",TRIM(STR_F$(LA("SO4-2"),10,5))
530 PRINT " TK = ",,TRIM(STR_F$(TK,10,2))
900 PRINT ".******************************************************"
-end


CALCULATE_VALUES
# The Rates are programmed as Calculated_Values,
# in this way it is possible to output each rate
# in Selected_Output, or plot them in User_Graphs.

Hours
  -start
    10 SAVE SIM_TIME/3600
  -end
Days
  -start
    10 SAVE SIM_TIME/86400
  -end
CellsCFBa
  -start
    10 REM # one cell = 1e-13 g, formula C5H9O2.5N = CH1.8O0.5N0.2
    20 REM # mol.weight 24.6 g bacteria per C-mol
    30 REM # TOT("X_cfb_a") is in units of C-mol/kg-H2O
    40 REM # TOT("X_cfb_a") = 1e-14 corresponds to less than 3 cells per kg-H2O
    70 SAVE TOT("X_cfb_a")*24.6/1e-13
  -end
CellsCFBi
  -start
    70 SAVE TOT("X_cfb_i")*24.6/1e-13
  -end
CellsSRBa
  -start
    70 SAVE TOT("X_srb_a")*24.6/1e-13
  -end
CellsSRBi
  -start
    70 SAVE TOT("X_srb_i")*24.6/1e-13
  -end
logCellsCFBa
  -start
    60 IF (TOT("X_cfb_a")>1e-14) THEN  x = CALC_VALUE("CellsCFBa") ELSE x = -14
    70 SAVE x
  -end
logCellsCFBi
  -start
    60 IF (TOT("X_cfb_i")>1e-14) THEN  x = CALC_VALUE("CellsCFBi") ELSE x = -14
    70 SAVE x
  -end
logCellsSRBa
  -start
    60 IF (TOT("X_srb_a")>1e-14) THEN  x = CALC_VALUE("CellsSRBa") ELSE x = -14
    70 SAVE x
  -end
logCellsSRBi
  -start
    60 IF (TOT("X_srb_i")>1e-14) THEN  x = CALC_VALUE("CellsSRBi") ELSE x = -14
    70 SAVE x
  -end

DG0r_srH2
  -start
    10 REM # Delta-G°r for SO4 reduction with H2(aq) in kJ/(mol H2)
    15 REM # corrected for the temperature of the model
    20 REM #   4 H2(aq) + H+ + SO4-2  --> HS- + 4 H2O   eqn.(20)
    40 REM # DG0_25 = -65.648 # kJ/(mol H2)
    50 REM # DH0 =    -58.390 # kJ/(mol H2)
    60 REM # the Gibbs-Helmholtz eqn. DG°r(T) / T = DG°r(T0) / T0 + DH°r (1/T - 1/T0)
    65 REM # also:    DH°r = [ (DG°r(T) / T) - (DG°r(T0) / T0) ] x (1/T - 1/T0)^-1
    70 REM # DG0_t = (DG0_25 * TK/298.15) + DH0 * TK*((1/TK)-(1/298.15))
    90 DG0_t = GET(1)
    95 SAVE DG0_t
  -end
logQsrH2
  -start
    10 REM # Although eqn.(20) contains one H+ in the LHS (left hand side)
    15 REM # the biochemical standard Gibbs energy listed in Table 2 is only
    20 REM # 19.8 kJ/mol larger than the non-biochemical value, indicating
    25 REM # that they had instead (1/2) H+ in the reaction:
    30 REM #   2 H2(aq) + 0.5 H+ + 0.5 SO4-2  -->  0.5 HS- + 2 H2O
    35 REM # a mystery... We use the reaction with one H2(aq).
    50 logQ = LA("H2O") +0.25*LA("HS_-") -0.25*LA("SO4-2") -LA("H2") -0.25*LA("H+")
    60 SAVE logQ
  -end
ThermFunc_srH2
  -start
    10 REM # Calculates MAX(0, 1-(Q/Keq)) with Q = reaction quotient
    30 R = 0.0083144626 # J/(mol K)
    40 ln10 = 2.302585092994046
    50 REM # lnK° = ln(10) logK = -DG°r / (RT)
    60 logK = - CALC_VALUE("DG0r_srH2") / (ln10*R*TK)
    70 logQ = CALC_VALUE("logQsrH2")
    80 logRatio = logQ - logK
    90 IF(logRatio < -25) THEN logRatio = -25
   100 X = 0.0
   110 IF (logRatio < 0) THEN X = (1-10^logRatio)
   115 IF (X > 1 OR X < 0) THEN PRINT "**** Error in ThermFunc_srH2, X =",X
   120 SAVE X
  -end
DGr_srH2
  -start
    10 REM # Delta-Gr for SO4 reduction with H2(aq) in kJ/(mol H2)
    20 REM # Delta-Gr = Delta-G°r + R T ln Q (where Q is the reaction quotient), eqn.(4)
    40 R = 0.0083144626 # J/(mol K)
    50 ln10 = 2.302585092994046
    60 DG0_t = CALC_VALUE("DG0r_srH2")
    70 logQ = CALC_VALUE("logQsrH2")
    80 DG_t = DG0_t + R * TK * ln10 * logQ
    90 SAVE DG_t
  -end

DG0r_srAc
  -start
    10 REM # Delta-G°r for SO4 reduction with acetate in kJ/(C-mol Acetate)
    15 REM # corrected for the temperature of the model
    20 REM #   CH3COO- + SO4-2  -->  2 HCO3- + HS-   eqn.(19)
    30 REM #   0.5 CH3COO- + 0.5 SO4-2 --> HCO3- + 0.5 HS-
    40 REM # DG0_25 = -24.067 # kJ/(C-mol acetate) based on DG°f(acetate) = -369.31 (NBS 1982)
    50 REM # DH0 =     -0.405 # kJ/(C-mol) based on DH°f(acetate) = -486.01 (NBS 1982)
    60 REM # the Gibbs-Helmholtz eqn. DG°r(T) / T = DG°r(T0) / T0 + DH°r (1/T - 1/T0)
    70 REM # DG0_t = (DG0_25 * TK/298.15) + DH0 * TK*((1/TK)-(1/298.15))
    75 DG0_t = GET(2)
    80 SAVE DG0_t
  -end
logQsrAc
  -start
    10 REM # Although eqn.(19) contains does not have any H+,
    15 REM # the biochemical standard Gibbs energy listed in Table 2 is only
    20 REM # 39.9 kJ/mol larger than the non-biochemical value, indicating
    25 REM # that they had instead one H+ in the LHS of the reaction
    30 REM #   CH3COO- + SO4-2  + 2H+  --> 2 CO2 + 2 H2O + HS-
    35 REM #   0.5 CH3COO- + 0.5 SO4-2  + H+  --> CO2 + H2O + 0.5 HS-
    40 REM # a mystery... We use the reaction written with HCO3-:
    45 REM #   0.5 CH3COO- + 0.5 SO4-2  -->  HCO3- + 0.5 HS-   eqn.(19)
    50 logQ = 0.5*LA("HS_-") + LA("HCO3-") - 0.5*LA("SO4-2") - 0.5*LA("Ace-")
    60 SAVE logQ
  -end
ThermFunc_srAc
  -start
    10 REM # Calculates MAX(0, 1-(Q/Keq)) with Q = reaction quotient
    30 R = 0.0083144626 # J/(mol K)
    40 ln10 = 2.302585092994046
    50 REM # lnK° = ln(10) logK = -DG°r / (RT)
    60 logK = - CALC_VALUE("DG0r_srAc") / (ln10*R*TK)
    70 logQ = CALC_VALUE("logQsrAc")
    80 logRatio = logQ - logK
    90 IF(logRatio < -25) THEN logRatio = -25
   100 X = 0.0
   110 IF (logRatio < 0) THEN X = (1-10^logRatio)
   115 IF (X > 1 OR X < 0) THEN PRINT "**** Error in ThermFunc_srAc, X =",X
   120 SAVE X
  -end
DGr_srAc
  -start
    10 REM # Delta-Gr for SO4 reduction with acetate in kJ/(C-mol Acetate)
    20 REM # Delta-Gr = Delta-G°r + R T ln Q (where Q is the reaction quotient), eqn.(4)
    40 R = 0.0083144626 # J/(mol K)
    50 ln10 = 2.302585092994046
    60 DG0_t = CALC_VALUE("DG0r_srAc")
    70 logQ = CALC_VALUE("logQsrAc")
    80 DG_t = DG0_t + R * TK * ln10 * logQ
    90 SAVE DG_t
  -end

DG0r_frm
  -start
    10 REM # Delta-G°r for glucose fermentation to acetate and H2(aq) in kJ/(C-mol Glucose)
    15 REM # corrected for the temperature of the model
    20 REM #   C6H12O6 + 4H2O = 2 Ace- + 2 HCO3- + 4H+ + 4H2(aq)  eqn.(18)
    25 REM # equivalent to: C6H12O6 + 2H2O = 2 Ace- + 2 CO2 + 2H+ + 4 H_2(aq)
    30 REM # For one C-mol eqn.(18) is:
    35 REM #    0.1667 C6H12O6 + 0.6667 H2O = 0.3333 CH3COO- + 0.3333 HCO3- + 0.6667 H+ + 0.6667 H2(aq)
    40 REM # DG0_25 = +3.739 # kJ/(C-mol glucose) based on  DG°f(glucose) = -915.902 (1989Goldberg-Tewari)
    45 REM #                                                DG°f(acetate) = -369.31  (NBS 1982)
    50 REM # DH0 = +6.152    # kJ/(C-mol) based on DH°f(glucose) = -1262.19 (1989Goldberg-Tewari)
    55 REM #                                 DH°f(acetate) =  -486.01 (NBS 1982)
    60 REM # the Gibbs-Helmholtz eqn.: DG°r(T) / T = (DG°r(T0) / T0) + DH°r (1/T - 1/T0)
    61 REM #     DG°r(T) = DG°r(T0) (T/T0) + DH°r T (1/T - 1/T0)
    65 REM # also:    DH°r = [ (DG°r(T) / T) - (DG°r(T0) / T0) ] x (1/T - 1/T0)^-1
    70 REM # DG0_t = (DG0_25 * TK/298.15) + DH0 * TK*((1/TK)-(1/298.15))
    75 DG0_t = GET(3)
    80 SAVE DG0_t
  -end
logQfrm
  -start
    10 REM # Although eqn.(18) has four H+ in the RHS,
    15 REM # the biochemical standard Gibbs energy listed in Table 2 is
    20 REM # -159.7 kJ/mol "larger" than the non-biochemical value, indicating
    25 REM # that they had NOT a reacction corresponding to one C-mol,
    40 REM # a mystery... We use the reaction written with for one C-mol:
    45 REM #   0.1667 C6H12O6 + 0.6667 H2O = 0.3333 CH3COO- + 0.3333 HCO3- + 0.6667 H+ + 0.6667 H2(aq)
    50 logQ = 0.3333333*LA("Ace-") +0.3333333*LA("HCO3-") +0.6666667*LA("H+") +0.6666667*LA("H2") -0.6666667*LA("H2O") -0.1666667*LA("Glucose")
    60 SAVE logQ
  -end
ThermFunc_frm
  -start
    10 REM # Calculates MAX(0, 1-(Q/Keq)) with Q = reaction quotient
    30 R = 0.0083144626 # J/(mol K)
    40 ln10 = 2.302585092994046
    50 REM # lnK° = ln(10) logK = -DG°r / (RT)
    60 logK = - CALC_VALUE("DG0r_frm") / (ln10*R*TK)
    70 logQ = CALC_VALUE("logQfrm")
    80 logRatio = logQ - logK
    90 IF(logRatio < -25) THEN logRatio = -25
   100 X = 0.0
   110 IF (logRatio < 0) THEN X = (1-10^logRatio)
   115 IF (X > 1 OR X < 0) THEN PRINT "**** Error in ThermFunc_frm, X =",X
   120 SAVE X
  -end
DGr_frm
  -start
    10 REM # Delta-Gr for glucose fermentation to acetate and H2(aq) in kJ/(C-mol Glucose)
    20 REM # Delta-Gr = Delta-G°r + R T ln Q (where Q is the reaction quotient), eqn.(4)
    40 R = 0.0083144626 # J/(mol K)
    50 ln10 = 2.302585092994046
    60 DG0_t = CALC_VALUE("DG0r_frm")
    70 logQ = CALC_VALUE("logQfrm")
    80 DG_t = DG0_t + R * TK * ln10 * logQ
    90 SAVE DG_t
  -end

R_hydrol
-start
   10 REM # Hydrolysis of cellulose to glucose. Rate in C-mol/(L s)
   20 REM #   HOM + HE  -->  HOM-HE  -->  C6H12O6 + HE (HE is a catalyst)
   30 REM # Because [HOM] is assumed constant, the reaction is "[nothing] --> Glucose"
  100 rate = 0
  120 IF(TOT("[he]")<1E-15) THEN GOTO 300
  130 Khyd =  1.E-05      # half sat. POM hydrolysis (C-mol POM/L) (p.7 1st paragraph left)
  140 Kmax =  1.273E-10   # max. rate POM hydrolysis = 1.1e-5 ((C-mol POM/L) day^-1)) Table 1
  200 REM # eqn.(1) in Bajracharya et al. (2022)
  210 rate = Kmax * (TOT("[he]")/(Khyd + TOT("[he]")))
  300 SAVE rate
-end
R_frm
-start
   10 REM # Calculates the rate of fermentation of glucose into acetate and H2 by CFB.
   15 REM # Rate in C-mol glucose/(L s)
   20 REM #   C6H12O6 + 4H2O = 2 Ace- + 2 HCO3- + 4H+ + 4H2(aq)
   25 REM #   1/6 C6H12O6 + 4/6 H2O = 2/6 Ace- + 2/6 HCO3- + 4/6 H+ + 4/6 H2(aq)
   30 REM # Fermentation requires the presence of fermenting bacteria (CFB)
  100 rate = 0
  120 REM # IF(TOT("Glucose")<1E-20 OR TOT("X_cfb_a")<1E-14) THEN GOTO 300
  130 Kfrm =  1.33E-04 / 6.   # (C-mol ED/L) half sat. for glucose fermentation
  140 Kmax =  6.25E-05        # max. fermentation rate = 5.4 (day^-1)
  150 f = (MOL("Glucose")) / (Kfrm + MOL("Glucose"))
  180 rate = Kmax * TOT("X_cfb_a") * f * CALC_VALUE("ThermFunc_frm")
  181 REM PRINT "181 rate =",rate," Glucose =",TOT("Glucose")," f =",f," H2 =",MOL("H2")," acet =",TOT("Ace")," TOT_X =",TOT("X_cfb_a")," func =",CALC_VALUE("ThermFunc_frm")
  190 REM # note: rate of fermentation must be >= 0 (acetate+H2 are generated)
  200 REM # IF(rate < 0) THEN rate = 0
  300 SAVE rate
-end
R_HE_prod
-start
     10 REM # Production of extracellular Hydrolytic Enzymes [he] by CFB
   1110 rate_HE = 0  # (C-mol [he]/(L·second))
   1130 R_ME_act = 2.0602e-4 # maintenance energy for active cells kJ / (C-mol biomass s) = 17.8 kJ / (C-mol biomass d)
   1145 KHE =      1e-5 # (C-mol [he] /L) inhibition coefficient regulating [he] production
   1150 DGHE =     2.93 # energy required to produce hydrolytic enzimes kJ/(C-mol HE)
   1190 R_frm = CALC_VALUE("R_frm")
   1195 DGr_frm = CALC_VALUE("DGr_frm")
   1196 IF(TOT("X_cfb_a") < 1E-14) THEN GOTO 3000  # [he] production requires CFB
   1200   diff = (-R_frm*DGr_frm) - (TOT("X_cfb_a")*R_ME_act) # ** if 'diff' > 0 then growth, if 'diff' < 0 then decay
   1201   REM PRINT "1201 R_frm =",R_frm," DGr_frm =",DGr_frm," -R_frm*DGr_frm =",-R_frm*DGr_frm," diff =",diff
   1210   IF(diff <= 0) THEN GOTO 3000
   1500     REM # *** enough energy for maintenance and perhaps growth and production of [he]
   1510     rate_HE = (diff / DGHE) * (KHE /(TOT("[he]")+KHE))
   1521     REM PRINT "1521 [he] production by CFB, rate =",rate_HE," should be >0 TOT_X =",TOT("X_cfb_a")
   1530     REM IF(rate_HE < 0) THEN rate_HE = 0
   3000 SAVE rate_HE
-end
R_HE_dec
-start
     10 REM # Decay of extracellular Hydrolytic Enzymes [he]
   1155 kHEdec =   5.787e-8 # (1/s) decay rate of hydrolytic enzimes = 0.005 (1/day)
   1600 REM # First-order decay of [he], eqn.(17)
   1610 rate_HE_dec = kHEdec * TOT("[he]")
   1630 REM PRINT "1630 [he] decay, rate =",rate_HE_dec," should be >0 [he] =",TOT("[he]")
   3000 SAVE rate_HE_dec
-end
R_CFB_gr
-start
     10 REM # CFB: Growth on glucose in C-mol biomass/(L s)
     20 REM #   0.175 C6H12O6 + 0.2 NH4+ = CH1.8O0.5N0.2 + 0.05 H2CO3 + 0.4 H2O + 0.2 H+
     30 REM #   See Table B.1, cross-referemce (CR) nr 95 in supplementary material of
     40 REM #   Smeaton and Van Cappellen (2018) Geochim. Cosmochim. Acta 241, 1–16. doi:10.1016/j.gca.2018.08.023
     50 REM # equivalent to: 0.175 C6H12O6 + 0.2 NH4+ = CH1.8O0.5N0.2 + 0.05 HCO3- + 0.4 H2O + 0.25 H+
     60 REM # in C-mols: 
   1100 rate = 0  # C-mol /(L s)
   1105 IF(TOT("Glucose") < 1e-15) THEN GOTO 3000  # growth of CFB requires glucose
   1130 R_ME_act = 2.0602e-4 # maintenance energy for active cells kJ / (C-mol biomass s) = 17.8 kJ/(C-mol biomass d)
   1140 DGgr = +211.         # energy required for biomass growth of fermenting bacteria kJ/(C-mol biomass)
   1145 KHE = 1e-5           # (C-mol [he] /L) inhibition coefficient regulating [he] production
   1190 R_frm =   CALC_VALUE("R_frm")
   1195 DGr_frm = CALC_VALUE("DGr_frm")
   1200 diff = (-R_frm*DGr_frm) - (TOT("X_cfb_a")*R_ME_act) # ** if 'diff' > 0 then growth, if 'diff' < 0 then decay
   1210 IF(diff > 0) THEN GOTO 1600
   1220   REM # *** not enough energy for maintenance: this is calculated in 'R_CFB_dec'
   1230   rate = 0
   1240   GOTO 3000
   1600 REM # *** enough energy for maintenance, the remaining energy is used for growth:
   1700 rate = (diff / DGgr) * (TOT("[he]")/(TOT("[he]")+KHE))
   1710 IF(rate < 0) THEN rate = 0  # Note: the rate of growth is > 0
   1721 REM PRINT "1721 growth of CFB, rate =",rate," TOT_X =",TOT("X_cfb_a")
   3000 SAVE rate
-end
R_CFB_dec
-start
     10 REM # CFB: decay of active cells. Rate in (C-mol /(L·second))
   1100 rate_decay = 0
   1120 IF (TOT("X_cfb_a") < 1E-14) THEN GOTO 3000 # if the biomass is zero, skip further decay
   1130 R_ME_act = 2.0602e-4 # maintenance energy for active cells kJ / (C-mol biomass s) = 17.8 kJ / (C-mol biomass d)
   1135 DGdec =    67 # energy gained from decaying biomass kJ /(C-mol biomass)
   1190 R_frm =   CALC_VALUE("R_frm")
   1195 DGr_frm = CALC_VALUE("DGr_frm")
   1500 REM # ** Get decay rate
   1510 diff = (-R_frm*DGr_frm) - (TOT("X_cfb_a")*R_ME_act) # ** if 'diff' > 0 then growth, if 'diff' < 0 then decay
   1511 REM PRINT "1511 R_frm =",R_frm," DGr_frm =",DGr_frm," -R_frm*DGr_frm =",-R_frm*DGr_frm," TOT_X*R_ME=",(TOT("X_cfb_a")*R_ME_act)," diff =",diff
   1520 IF (diff <= 0) THEN GOTO 1600
   1521   REM PRINT "1521 growth of biomass, diff =",diff
   1525   GOTO 3000 # this is calculated in 'R_CFB_gr'
   1600 REM # ** not enough energy for maintenance: calculate biomass decay (cell death and endogenous respiration).
   1615 REM # Note: decay is negative (biomass decreases), 'rate_decay' will < 0
   1620 rate_decay = diff / DGdec
   1621 REM PRINT "1621 decay of active CFB, rate =",rate_decay," TOT_X =",TOT("X_cfb_a")
   3000 SAVE rate_decay
-end
R_CFB_deact
-start
     10 REM # CFB: deactivation of cells (dormancy). Rate in (C-mol /(L·second))
   1100 rate = 0   # C-mol/(L s)
   1120 IF (TOT("X_cfb_a") < 1E-14) THEN GOTO 3000 # if the biomass is zero, skip deactivation
   1130 R_ME_act = 2.0602e-4 # maintenance energy for active cells kJ / (C-mol biomass s) = 17.8 kJ / (C-mol biomass d)
   1150 k_deac =   1.3889e-5 # Deactivation rate (1/s) = 1.2 (1/d)
   1190 R_frm =   CALC_VALUE("R_frm")
   1195 DGr_frm = CALC_VALUE("DGr_frm")
   1200 REM # ** Get deactivation rate
   1230 ratio_1 = - (R_frm * DGr_frm) / (TOT("X_cfb_a")*R_ME_act) -1
   1240 REM # calculate 'tanh(x)' = (exp(x) - exp(-x)) / (exp(x) + exp(-x))
   1245 REM #                     = (exp(2x)-1) / (exp(2x)+1)
   1250 exp2x = EXP(2 * ratio_1)
   1260 tanh = (exp2x - 1) / (exp2x + 1)
   1270 theta = 0.5*(tanh+1)
   1280 IF (theta > 1 OR theta < 0) THEN PRINT "**** Error in CFB_deact, theta = ",theta
   1620 rate = k_deac * (1-theta) * TOT("X_cfb_a")
   1621 REM PRINT "1621 deact of CFB, rate =",rate," TOT_X =",TOT("X_cfb_a")
   3000 SAVE rate
-end
R_CFB_act
-start
     10 REM # CFB: Activation of dormant cells. Rate in (C-mol /(L·second))
   1100 rate = 0   # C-mol /(L s)
   1120 IF (TOT("X_cfb_i") < 1E-14) THEN GOTO 3000 # if the biomass is zero, skip activation
   1130 R_ME_act = 2.0602e-4  # maintenance energy for active cells kJ / (C-mol biomass s) = 17.8 kJ / (C-mol biomass d)
   1155 k_act =    1.3889e-5  # Activation rate (1/s) = 1.2 (1/d)
   1190 R_frm =   CALC_VALUE("R_frm")
   1195 DGr_frm = CALC_VALUE("DGr_frm")
   1200 REM # ** Get activation rate of dormant bacteria
   1205 theta = 1.0
   1210 IF (TOT("X_cfb_a") < 1E-14) THEN GOTO 1300
   1230   ratio_1 = - (R_frm * DGr_frm) / (TOT("X_cfb_a")*R_ME_act) -1
   1240   REM # calculate 'tanh(x)' = (exp(x) - exp(-x)) / (exp(x) + exp(-x))
   1245   REM #                     = (exp(2x)-1) / (exp(2x)+1)
   1250   exp2x = EXP(2 * ratio_1)
   1260   tanh = (exp2x - 1) / (exp2x + 1)
   1270   theta = 0.5*(tanh+1)
   1280   IF (theta > 1 OR theta < 0) THEN PRINT "**** Error in CFB_act, theta = ",theta
   1300 rate = k_act * theta * TOT("X_cfb_i")
   1621 REM PRINT "1621 activation of dormant CFB, rate =",rate," TOT_Xi =",TOT("X_cfb_i")
   3000 SAVE rate
-end
R_CFBi_dec
-start
     10 REM # CFB: Maintenance and decay of dormant cells. Rate in (C-mol /(L·second))
   1100 rate = 0   # C-mol /(L s)
   1120 IF (TOT("X_cfb_i") < 1E-14) THEN GOTO 3000 # if the biomass is zero, skip further decay
   1160 R_ME_in = 3.58796e-6 # maintenance energy for inactive (dormant) cells kJ / (C-mol biomass s) = 0.31 kJ / (C-mol biomass d)
   1165 DGdec_in = 67 # energy gained from decaying biomass kJ /(C-mol biomass)
   1500 REM # ** Get decay rate
   1620 rate = TOT("X_cfb_i") * R_ME_in / (-DGdec_in)
   1621 REM PRINT "1621 decay of dormant CFB, rate =",rate," TOT_Xi =",TOT("X_cfb_i")
   1630 REM # Note: the rate is < 0
   3000 SAVE rate
-end

R_SO4_red_acet
-start
   10 REM # SO4 reduction by SRB with acetate. Rate in C-mol acetate/(L s)
   20 REM #   0.5 CH3COO- + 0.5 SO4-2 --> HCO3- + 0.5 HS-
  100 rate = 0  # C-mol acetate /(L s)
  120 IF(TOT("X_srb_a")<1E-14) THEN GOTO 300
  130 Kace =  2.0000E-03 / 2. # half sat. for Acetate (C-mol of Ace/L)
  140 Kmax =  3.3912E-04      # max. rate of SO4 reduction by SRB with acetate (1/second)) = 29.3 1/day
  150 f = MOL("Ace-")/(Kace + MOL("Ace-"))
  180 rate = Kmax * TOT("X_srb_a") * f * CALC_VALUE("ThermFunc_srAc")
  181 REM PRINT "181 SRB with acet, rate =",rate," TOT_X=",TOT("X_srb_a")
  300 SAVE rate
-end
R_SO4_red_H2
-start
   10 REM # SO4 reduction by SRB with H2(aq). Rate in mol H2/(L s)
   20 REM #   H2(aq) + (1/4) H+ + (1/4) SO4-2  -->  (1/4) HS- + H2O
  100 rate = 0 # mol-H2 /(L s)
  120 IF(TOT("X_srb_a")<1E-14) THEN GOTO 300
  130 Kh2 =   1.000E-05   # half sat. for H2 (mol H2/L)
  140 Kmax =  8.912E-05   # max. rate of SO4 reduction by SRB with H2 (1/second)) = 7.7 (1/day)
  150 f = MOL("H2")/(Kh2 + MOL("H2"))
  180 rate = Kmax * TOT("X_srb_a") * f * CALC_VALUE("ThermFunc_srH2")
  181 REM PRINT "181 SRB with H2, rate =",rate," TOT_X=",TOT("X_srb_a")
  300 SAVE rate
-end

R_SRB_gr_ac
-start
     10 REM # SRB: Growth on acetate
     20 REM #   0.525 CH3COO- + 0.2 NH4+ +0.275 H+ = CH1.8O0.5N0.2 + 0.05 HCO3- + 0.4 H2O
     30 REM #   See Table B.1, cross-referemce (CR) nr 76 in supplementary material of
     40 REM #   Smeaton and Van Cappellen (2018) Geochim. Cosmochim. Acta 241, 1–16. doi:10.1016/j.gca.2018.08.023
   1110 rate =  0  # (C-mol biomass /(L·s))
   1130 R_ME_act = 2.0602e-4 # maintenance energy for active cells kJ / (C-mol biomass s) = 17.8 kJ / (C-mol biomass d)
   1140 DGgr = +426.         # energy required for biomass growth of SRB kJ / (C-mol biomass)
   1190 R_srb_ac =   CALC_VALUE("R_SO4_red_acet")
   1195 DGr_srb_ac = CALC_VALUE("DGr_srAc")
   1196 R_srb_H2 =   CALC_VALUE("R_SO4_red_H2")
   1198 DGr_srb_H2 = CALC_VALUE("DGr_srH2")
   1500 REM # ** Get decay rate
   1505 XR = TOT("X_srb_a")*R_ME_act
   1540 diff = (-R_srb_ac*DGr_srb_ac) + (-R_srb_H2*DGr_srb_H2) - XR  # ** if 'diff' > 0 then growth, if 'diff' < 0 then decay
   1560 IF(diff > 0) THEN GOTO 1600
   1561   REM # *** not enough energy for maintenance: this is calculated in 'SRB_dec'
   1565   GOTO 3000
   1600 REM # *** enough energy for maintenance, the remaining energy is used for growth:
   1700 rate = diff / DGgr
   1721 REM PRINT "1721 growth of SRB on acet, rate =",rate," TOT_X =",TOT("X_srb_a")
   3000 SAVE rate
-end
R_SRB_gr_H2
-start
     10 REM # SRB: Growth on acetate/CO2
     20 REM #   0.35 CH3COO- + 0.3 CO2 + 0.2 NH4+ +0.7 H2 + 0.15 H+ = CH1.8O0.5N0.2 + 0.8 H2O
     30 REM #   See Table B.1, cross-referemce (CR) nr 83 in supplementary material of
     40 REM #   Smeaton and Van Cappellen (2018) Geochim. Cosmochim. Acta 241, 1–16. doi:10.1016/j.gca.2018.08.023
     50 REM # Note that the proportion between acetate and CO2 may vary between SRB.
     60 REM # equivalent to:
     70 REM #   0.35 CH3COO- + 0.3 HCO3- + 0.2 NH4+ +0.7 H2 + 0.45 H+ = CH1.8O0.5N0.2 + 1.1 H2O
   1110 rate =  0  # (C-mol biomass /(L·s))
   1111 REM # **************************************************
   1115 REM # Growth on H2+CO2+acetate not included in the model
   1116 REM # **************************************************
   1120 GOTO 3000
   1130 REM R_ME_act = 2.0602e-4 # maintenance energy for active cells kJ / (C-mol biomass s) = 17.8 kJ / (C-mol biomass d)
   1140 REM DGgr =    +426.      # energy required for biomass growth of SRB kJ / (C-mol biomass)
   1190 R_srb_ac =   CALC_VALUE("R_SO4_red_acet")
   1195 DGr_srb_ac = CALC_VALUE("DGr_srAc")
   1196 R_srb_H2 =   CALC_VALUE("R_SO4_red_H2")
   1198 DGr_srb_H2 = CALC_VALUE("DGr_srH2")
   1500 REM # ** Get decay rate
   1505 XR = TOT("X_srb_a")*R_ME_act
   1540 diff = (-R_srb_ac*DGr_srb_ac) + (-R_srb_H2*DGr_srb_H2) - XR  # ** if 'diff' > 0 then growth, if 'diff' < 0 then decay
   1560 IF(diff > 0) THEN GOTO 1600
   1561   REM # *** not enough energy for maintenance: this is calculated in 'SRB_dec'
   1565   GOTO 3000
   1600 REM # *** enough energy for maintenance, the remaining energy is used for growth:
   1700 rate = diff / DGgr
   1721 REM PRINT "1721 growth of SRB on H2, rate =",rate," TOT_X =",TOT("X_srb_a")
   3000 SAVE rate
-end
R_SRB_dec
-start
     10 REM # SRB: decay of active cells. Rate in (C-mol biomass /(L·s))
   1100 rate = 0   # C-mol biomass /(L·s)
   1120 IF (TOT("X_srb_a") < 1E-14) THEN GOTO 3000 # if the biomass is zero, skip further decay
   1130 R_ME_act = 2.0602e-4 # maintenance energy for active cells kJ / (C-mol biomass s) = 17.8 kJ / (C-mol biomass d)
   1135 DGdec =    67. # energy gained from decaying biomass kJ /(C-mol biomass)
   1190 R_srb_ac =   CALC_VALUE("R_SO4_red_acet")
   1195 DGr_srb_ac = CALC_VALUE("DGr_srAc")
   1196 R_srb_H2 =   CALC_VALUE("R_SO4_red_H2")
   1198 DGr_srb_H2 = CALC_VALUE("DGr_srH2")
   1500 REM # ** Get decay rate
   1505 XR = TOT("X_srb_a")*R_ME_act
   1540 diff = (-R_srb_ac*DGr_srb_ac) + (-R_srb_H2*DGr_srb_H2) - XR # ** if 'diff' > 0 then growth, if 'diff' < 0 then decay
   1560 IF (diff < 0) THEN GOTO 1600
   1561   REM PRINT "1561 growth of SRB, diff =",diff
   1565   GOTO 3000 # this is calculated in 'X_srb_gr'
   1600 REM # ** not enough energy for maintenance: calculate biomass decay (cell death and endogenous respiration).
   1605 REM PRINT "1605 SRB decay, diff =",diff
   1615 REM # Note: decay rate is negative (biomass decreases)
   1620 rate = diff / DGdec
   1621 REM PRINT "1621 decay of active SRB, rate =",rate," TOT_X =",TOT("X_srb_a")
   3000 SAVE rate
-end
R_SRB_deact
-start
     10 REM # SRB: deactivation of cells (dormancy). Rate in (C-mol /(L·s))
   1100 rate = 0   # C-mol /(L·s)
   1120 IF (TOT("X_srb_a") < 1E-14) THEN GOTO 3000 # if the biomass is zero, skip deactivation
   1130 R_ME_act = 2.0602e-4 # maintenance energy for active cells kJ / (C-mol biomass s) = 17.8 kJ / (C-mol biomass d)
   1150 k_deac =   1.3889e-5 # Deactivation rate (1/s) = 1.2 (1/d)
   1190 R_srb_ac =   CALC_VALUE("R_SO4_red_acet")
   1195 DGr_srb_ac = CALC_VALUE("DGr_srAc")
   1196 R_srb_H2 =   CALC_VALUE("R_SO4_red_H2")
   1198 DGr_srb_H2 = CALC_VALUE("DGr_srH2")
   1200 REM # ** Get deactivation rate
   1210 XR = TOT("X_srb_a")*R_ME_act
   1235 REM # if 'ratio' is bigger, then theta is bigger
   1236 REM # if theta is bigger, then activation is larger and deactivation is smaller